<additional>

  <edgeData id="edge_output" file="sioux_falls_uncon_edge_output.xml" period="900"/>

</additional>
        