<routes>
	<vType id="passenger" vClass="passenger" startupDelay="0.75" desiredMaxSpeed="12.5" speedFactor="1.0" speedDev="0" sigma="0" actionStepLength="1.0"/>

<route id="1-0-2-0" edges="01-0_01 0102 02_02-0 "/>
<route id="1-0-2-1" edges="01-0_01 0102 02_02-1 "/>
<route id="1-0-3-0" edges="01-0_01 0103 03_03-0 "/>
<route id="1-0-4-0" edges="01-0_01 0103 0304 04_04-0 "/>
<route id="1-0-5-0" edges="01-0_01 0103 0304 0405 05_05-0 "/>
<route id="1-0-6-0" edges="01-0_01 0103 0304 0405 0506 06_06-0 "/>
<route id="1-0-7-0" edges="01-0_01 0103 0304 0405 0506 0608 0807 07_07-0 "/>
<route id="1-0-7-1" edges="01-0_01 0103 0304 0405 0506 0608 0807 07_07-1 "/>
<route id="1-0-9-0" edges="01-0_01 0103 0304 0405 0509 09_09-0 "/>
<route id="1-0-12-0" edges="01-0_01 0103 0312 12_12-0 "/>
<route id="1-0-13-0" edges="01-0_01 0103 0312 1213 13_13-0 "/>
<route id="1-0-13-1" edges="01-0_01 0103 0312 1213 13_13-1 "/>
<route id="1-0-14-0" edges="01-0_01 0103 0304 0411 1114 14_14-0 "/>
<route id="1-0-17-0" edges="01-0_01 0103 0304 0405 0506 0608 0816 1617 17_17-0 "/>
<route id="1-0-18-0" edges="01-0_01 0103 0304 0405 0509 0910 1015 1518 18_18-0 "/>
<route id="1-0-20-0" edges="01-0_01 0103 0304 0405 0509 0910 1015 1521 2120 20_20-0 "/>
<route id="1-0-22-0" edges="01-0_01 0103 0304 0411 1114 1422 22_22-0 "/>
<route id="1-0-23-0" edges="01-0_01 0103 0304 0411 1114 1422 2223 23_23-0 "/>
<route id="1-1-2-0" edges="01-1_01 0102 02_02-0 "/>
<route id="1-1-2-1" edges="01-1_01 0102 02_02-1 "/>
<route id="1-1-3-0" edges="01-1_01 0103 03_03-0 "/>
<route id="1-1-4-0" edges="01-1_01 0103 0304 04_04-0 "/>
<route id="1-1-5-0" edges="01-1_01 0103 0304 0405 05_05-0 "/>
<route id="1-1-6-0" edges="01-1_01 0103 0304 0405 0506 06_06-0 "/>
<route id="1-1-7-0" edges="01-1_01 0103 0304 0405 0506 0608 0807 07_07-0 "/>
<route id="1-1-7-1" edges="01-1_01 0103 0304 0405 0506 0608 0807 07_07-1 "/>
<route id="1-1-9-0" edges="01-1_01 0103 0304 0405 0509 09_09-0 "/>
<route id="1-1-12-0" edges="01-1_01 0103 0312 12_12-0 "/>
<route id="1-1-13-0" edges="01-1_01 0103 0312 1213 13_13-0 "/>
<route id="1-1-13-1" edges="01-1_01 0103 0312 1213 13_13-1 "/>
<route id="1-1-14-0" edges="01-1_01 0103 0304 0411 1114 14_14-0 "/>
<route id="1-1-17-0" edges="01-1_01 0103 0304 0405 0506 0608 0816 1617 17_17-0 "/>
<route id="1-1-18-0" edges="01-1_01 0103 0304 0405 0509 0910 1015 1518 18_18-0 "/>
<route id="1-1-20-0" edges="01-1_01 0103 0304 0405 0509 0910 1015 1521 2120 20_20-0 "/>
<route id="1-1-22-0" edges="01-1_01 0103 0304 0411 1114 1422 22_22-0 "/>
<route id="1-1-23-0" edges="01-1_01 0103 0304 0411 1114 1422 2223 23_23-0 "/>
<route id="2-0-1-0" edges="02-0_02 0201 01_01-0 "/>
<route id="2-0-1-1" edges="02-0_02 0201 01_01-1 "/>
<route id="2-0-3-0" edges="02-0_02 0206 0605 0504 0403 03_03-0 "/>
<route id="2-0-4-0" edges="02-0_02 0206 0605 0504 04_04-0 "/>
<route id="2-0-5-0" edges="02-0_02 0206 0605 05_05-0 "/>
<route id="2-0-6-0" edges="02-0_02 0206 06_06-0 "/>
<route id="2-0-7-0" edges="02-0_02 0206 0608 0807 07_07-0 "/>
<route id="2-0-7-1" edges="02-0_02 0206 0608 0807 07_07-1 "/>
<route id="2-0-9-0" edges="02-0_02 0206 0605 0509 09_09-0 "/>
<route id="2-0-12-0" edges="02-0_02 0206 0605 0509 0910 1011 1112 12_12-0 "/>
<route id="2-0-13-0" edges="02-0_02 0206 0608 0816 1618 1819 1920 2023 2313 13_13-0 "/>
<route id="2-0-13-1" edges="02-0_02 0206 0608 0816 1618 1819 1920 2023 2313 13_13-1 "/>
<route id="2-0-14-0" edges="02-0_02 0206 0605 0509 0910 1011 1114 14_14-0 "/>
<route id="2-0-17-0" edges="02-0_02 0206 0608 0816 1617 17_17-0 "/>
<route id="2-0-18-0" edges="02-0_02 0206 0608 0816 1618 18_18-0 "/>
<route id="2-0-20-0" edges="02-0_02 0206 0608 0816 1618 1819 1920 20_20-0 "/>
<route id="2-0-22-0" edges="02-0_02 0206 0605 0509 0910 1011 1114 1422 22_22-0 "/>
<route id="2-0-23-0" edges="02-0_02 0206 0608 0816 1618 1819 1920 2023 23_23-0 "/>
<route id="2-1-1-0" edges="02-1_02 0201 01_01-0 "/>
<route id="2-1-1-1" edges="02-1_02 0201 01_01-1 "/>
<route id="2-1-3-0" edges="02-1_02 0206 0605 0504 0403 03_03-0 "/>
<route id="2-1-4-0" edges="02-1_02 0206 0605 0504 04_04-0 "/>
<route id="2-1-5-0" edges="02-1_02 0206 0605 05_05-0 "/>
<route id="2-1-6-0" edges="02-1_02 0206 06_06-0 "/>
<route id="2-1-7-0" edges="02-1_02 0206 0608 0807 07_07-0 "/>
<route id="2-1-7-1" edges="02-1_02 0206 0608 0807 07_07-1 "/>
<route id="2-1-9-0" edges="02-1_02 0206 0605 0509 09_09-0 "/>
<route id="2-1-12-0" edges="02-1_02 0206 0605 0509 0910 1011 1112 12_12-0 "/>
<route id="2-1-13-0" edges="02-1_02 0206 0608 0816 1618 1819 1920 2023 2313 13_13-0 "/>
<route id="2-1-13-1" edges="02-1_02 0206 0608 0816 1618 1819 1920 2023 2313 13_13-1 "/>
<route id="2-1-14-0" edges="02-1_02 0206 0605 0509 0910 1011 1114 14_14-0 "/>
<route id="2-1-17-0" edges="02-1_02 0206 0608 0816 1617 17_17-0 "/>
<route id="2-1-18-0" edges="02-1_02 0206 0608 0816 1618 18_18-0 "/>
<route id="2-1-20-0" edges="02-1_02 0206 0608 0816 1618 1819 1920 20_20-0 "/>
<route id="2-1-22-0" edges="02-1_02 0206 0605 0509 0910 1011 1114 1422 22_22-0 "/>
<route id="2-1-23-0" edges="02-1_02 0206 0608 0816 1618 1819 1920 2023 23_23-0 "/>
<route id="3-0-1-0" edges="03-0_03 0301 01_01-0 "/>
<route id="3-0-1-1" edges="03-0_03 0301 01_01-1 "/>
<route id="3-0-2-0" edges="03-0_03 0304 0405 0506 0602 02_02-0 "/>
<route id="3-0-2-1" edges="03-0_03 0304 0405 0506 0602 02_02-1 "/>
<route id="3-0-4-0" edges="03-0_03 0304 04_04-0 "/>
<route id="3-0-5-0" edges="03-0_03 0304 0405 05_05-0 "/>
<route id="3-0-6-0" edges="03-0_03 0304 0405 0506 06_06-0 "/>
<route id="3-0-7-0" edges="03-0_03 0304 0405 0506 0608 0807 07_07-0 "/>
<route id="3-0-7-1" edges="03-0_03 0304 0405 0506 0608 0807 07_07-1 "/>
<route id="3-0-9-0" edges="03-0_03 0304 0405 0509 09_09-0 "/>
<route id="3-0-12-0" edges="03-0_03 0312 12_12-0 "/>
<route id="3-0-13-0" edges="03-0_03 0312 1213 13_13-0 "/>
<route id="3-0-13-1" edges="03-0_03 0312 1213 13_13-1 "/>
<route id="3-0-14-0" edges="03-0_03 0304 0411 1114 14_14-0 "/>
<route id="3-0-17-0" edges="03-0_03 0304 0405 0506 0608 0816 1617 17_17-0 "/>
<route id="3-0-18-0" edges="03-0_03 0304 0405 0509 0910 1015 1518 18_18-0 "/>
<route id="3-0-20-0" edges="03-0_03 0304 0405 0509 0910 1015 1521 2120 20_20-0 "/>
<route id="3-0-22-0" edges="03-0_03 0304 0411 1114 1422 22_22-0 "/>
<route id="3-0-23-0" edges="03-0_03 0304 0411 1114 1422 2223 23_23-0 "/>
<route id="4-0-1-0" edges="04-0_04 0403 0301 01_01-0 "/>
<route id="4-0-1-1" edges="04-0_04 0403 0301 01_01-1 "/>
<route id="4-0-2-0" edges="04-0_04 0405 0506 0602 02_02-0 "/>
<route id="4-0-2-1" edges="04-0_04 0405 0506 0602 02_02-1 "/>
<route id="4-0-3-0" edges="04-0_04 0403 03_03-0 "/>
<route id="4-0-5-0" edges="04-0_04 0405 05_05-0 "/>
<route id="4-0-6-0" edges="04-0_04 0405 0506 06_06-0 "/>
<route id="4-0-7-0" edges="04-0_04 0405 0506 0608 0807 07_07-0 "/>
<route id="4-0-7-1" edges="04-0_04 0405 0506 0608 0807 07_07-1 "/>
<route id="4-0-9-0" edges="04-0_04 0405 0509 09_09-0 "/>
<route id="4-0-12-0" edges="04-0_04 0403 0312 12_12-0 "/>
<route id="4-0-13-0" edges="04-0_04 0411 1114 1422 2223 2313 13_13-0 "/>
<route id="4-0-13-1" edges="04-0_04 0411 1114 1422 2223 2313 13_13-1 "/>
<route id="4-0-14-0" edges="04-0_04 0411 1114 14_14-0 "/>
<route id="4-0-17-0" edges="04-0_04 0405 0506 0608 0816 1617 17_17-0 "/>
<route id="4-0-18-0" edges="04-0_04 0405 0509 0910 1015 1518 18_18-0 "/>
<route id="4-0-20-0" edges="04-0_04 0405 0509 0910 1015 1521 2120 20_20-0 "/>
<route id="4-0-22-0" edges="04-0_04 0411 1114 1422 22_22-0 "/>
<route id="4-0-23-0" edges="04-0_04 0411 1114 1422 2223 23_23-0 "/>
<route id="5-0-1-0" edges="05-0_05 0504 0403 0301 01_01-0 "/>
<route id="5-0-1-1" edges="05-0_05 0504 0403 0301 01_01-1 "/>
<route id="5-0-2-0" edges="05-0_05 0506 0602 02_02-0 "/>
<route id="5-0-2-1" edges="05-0_05 0506 0602 02_02-1 "/>
<route id="5-0-3-0" edges="05-0_05 0504 0403 03_03-0 "/>
<route id="5-0-4-0" edges="05-0_05 0504 04_04-0 "/>
<route id="5-0-6-0" edges="05-0_05 0506 06_06-0 "/>
<route id="5-0-7-0" edges="05-0_05 0506 0608 0807 07_07-0 "/>
<route id="5-0-7-1" edges="05-0_05 0506 0608 0807 07_07-1 "/>
<route id="5-0-9-0" edges="05-0_05 0509 09_09-0 "/>
<route id="5-0-12-0" edges="05-0_05 0509 0910 1011 1112 12_12-0 "/>
<route id="5-0-13-0" edges="05-0_05 0509 0910 1015 1521 2120 2023 2313 13_13-0 "/>
<route id="5-0-13-1" edges="05-0_05 0509 0910 1015 1521 2120 2023 2313 13_13-1 "/>
<route id="5-0-14-0" edges="05-0_05 0509 0910 1011 1114 14_14-0 "/>
<route id="5-0-17-0" edges="05-0_05 0506 0608 0816 1617 17_17-0 "/>
<route id="5-0-18-0" edges="05-0_05 0509 0910 1015 1518 18_18-0 "/>
<route id="5-0-20-0" edges="05-0_05 0509 0910 1015 1521 2120 20_20-0 "/>
<route id="5-0-22-0" edges="05-0_05 0509 0910 1011 1114 1422 22_22-0 "/>
<route id="5-0-23-0" edges="05-0_05 0509 0910 1015 1521 2120 2023 23_23-0 "/>
<route id="6-0-1-0" edges="06-0_06 0605 0504 0403 0301 01_01-0 "/>
<route id="6-0-1-1" edges="06-0_06 0605 0504 0403 0301 01_01-1 "/>
<route id="6-0-2-0" edges="06-0_06 0602 02_02-0 "/>
<route id="6-0-2-1" edges="06-0_06 0602 02_02-1 "/>
<route id="6-0-3-0" edges="06-0_06 0605 0504 0403 03_03-0 "/>
<route id="6-0-4-0" edges="06-0_06 0605 0504 04_04-0 "/>
<route id="6-0-5-0" edges="06-0_06 0605 05_05-0 "/>
<route id="6-0-7-0" edges="06-0_06 0608 0807 07_07-0 "/>
<route id="6-0-7-1" edges="06-0_06 0608 0807 07_07-1 "/>
<route id="6-0-9-0" edges="06-0_06 0605 0509 09_09-0 "/>
<route id="6-0-12-0" edges="06-0_06 0605 0509 0910 1011 1112 12_12-0 "/>
<route id="6-0-13-0" edges="06-0_06 0608 0816 1618 1819 1920 2023 2313 13_13-0 "/>
<route id="6-0-13-1" edges="06-0_06 0608 0816 1618 1819 1920 2023 2313 13_13-1 "/>
<route id="6-0-14-0" edges="06-0_06 0605 0509 0910 1011 1114 14_14-0 "/>
<route id="6-0-17-0" edges="06-0_06 0608 0816 1617 17_17-0 "/>
<route id="6-0-18-0" edges="06-0_06 0608 0816 1618 18_18-0 "/>
<route id="6-0-20-0" edges="06-0_06 0608 0816 1618 1819 1920 20_20-0 "/>
<route id="6-0-22-0" edges="06-0_06 0605 0509 0910 1011 1114 1422 22_22-0 "/>
<route id="6-0-23-0" edges="06-0_06 0608 0816 1618 1819 1920 2023 23_23-0 "/>
<route id="7-0-1-0" edges="07-0_07 0708 0806 0605 0504 0403 0301 01_01-0 "/>
<route id="7-0-1-1" edges="07-0_07 0708 0806 0605 0504 0403 0301 01_01-1 "/>
<route id="7-0-2-0" edges="07-0_07 0708 0806 0602 02_02-0 "/>
<route id="7-0-2-1" edges="07-0_07 0708 0806 0602 02_02-1 "/>
<route id="7-0-3-0" edges="07-0_07 0708 0806 0605 0504 0403 03_03-0 "/>
<route id="7-0-4-0" edges="07-0_07 0708 0806 0605 0504 04_04-0 "/>
<route id="7-0-5-0" edges="07-0_07 0708 0806 0605 05_05-0 "/>
<route id="7-0-6-0" edges="07-0_07 0708 0806 06_06-0 "/>
<route id="7-0-9-0" edges="07-0_07 0708 0809 09_09-0 "/>
<route id="7-0-12-0" edges="07-0_07 0717 1716 1610 1011 1112 12_12-0 "/>
<route id="7-0-13-0" edges="07-0_07 0717 1719 1920 2023 2313 13_13-0 "/>
<route id="7-0-13-1" edges="07-0_07 0717 1719 1920 2023 2313 13_13-1 "/>
<route id="7-0-14-0" edges="07-0_07 0717 1716 1610 1011 1114 14_14-0 "/>
<route id="7-0-17-0" edges="07-0_07 0717 17_17-0 "/>
<route id="7-0-18-0" edges="07-0_07 0717 1716 1618 18_18-0 "/>
<route id="7-0-20-0" edges="07-0_07 0717 1719 1920 20_20-0 "/>
<route id="7-0-22-0" edges="07-0_07 0717 1716 1610 1011 1114 1422 22_22-0 "/>
<route id="7-0-23-0" edges="07-0_07 0717 1719 1920 2023 23_23-0 "/>
<route id="7-1-1-0" edges="07-1_07 0708 0806 0605 0504 0403 0301 01_01-0 "/>
<route id="7-1-1-1" edges="07-1_07 0708 0806 0605 0504 0403 0301 01_01-1 "/>
<route id="7-1-2-0" edges="07-1_07 0708 0806 0602 02_02-0 "/>
<route id="7-1-2-1" edges="07-1_07 0708 0806 0602 02_02-1 "/>
<route id="7-1-3-0" edges="07-1_07 0708 0806 0605 0504 0403 03_03-0 "/>
<route id="7-1-4-0" edges="07-1_07 0708 0806 0605 0504 04_04-0 "/>
<route id="7-1-5-0" edges="07-1_07 0708 0806 0605 05_05-0 "/>
<route id="7-1-6-0" edges="07-1_07 0708 0806 06_06-0 "/>
<route id="7-1-9-0" edges="07-1_07 0708 0809 09_09-0 "/>
<route id="7-1-12-0" edges="07-1_07 0717 1716 1610 1011 1112 12_12-0 "/>
<route id="7-1-13-0" edges="07-1_07 0717 1719 1920 2023 2313 13_13-0 "/>
<route id="7-1-13-1" edges="07-1_07 0717 1719 1920 2023 2313 13_13-1 "/>
<route id="7-1-14-0" edges="07-1_07 0717 1716 1610 1011 1114 14_14-0 "/>
<route id="7-1-17-0" edges="07-1_07 0717 17_17-0 "/>
<route id="7-1-18-0" edges="07-1_07 0717 1716 1618 18_18-0 "/>
<route id="7-1-20-0" edges="07-1_07 0717 1719 1920 20_20-0 "/>
<route id="7-1-22-0" edges="07-1_07 0717 1716 1610 1011 1114 1422 22_22-0 "/>
<route id="7-1-23-0" edges="07-1_07 0717 1719 1920 2023 23_23-0 "/>
<route id="9-0-1-0" edges="09-0_09 0905 0504 0403 0301 01_01-0 "/>
<route id="9-0-1-1" edges="09-0_09 0905 0504 0403 0301 01_01-1 "/>
<route id="9-0-2-0" edges="09-0_09 0905 0506 0602 02_02-0 "/>
<route id="9-0-2-1" edges="09-0_09 0905 0506 0602 02_02-1 "/>
<route id="9-0-3-0" edges="09-0_09 0905 0504 0403 03_03-0 "/>
<route id="9-0-4-0" edges="09-0_09 0905 0504 04_04-0 "/>
<route id="9-0-5-0" edges="09-0_09 0905 05_05-0 "/>
<route id="9-0-6-0" edges="09-0_09 0905 0506 06_06-0 "/>
<route id="9-0-7-0" edges="09-0_09 0908 0807 07_07-0 "/>
<route id="9-0-7-1" edges="09-0_09 0908 0807 07_07-1 "/>
<route id="9-0-12-0" edges="09-0_09 0910 1011 1112 12_12-0 "/>
<route id="9-0-13-0" edges="09-0_09 0910 1015 1521 2120 2023 2313 13_13-0 "/>
<route id="9-0-13-1" edges="09-0_09 0910 1015 1521 2120 2023 2313 13_13-1 "/>
<route id="9-0-14-0" edges="09-0_09 0910 1011 1114 14_14-0 "/>
<route id="9-0-17-0" edges="09-0_09 0908 0816 1617 17_17-0 "/>
<route id="9-0-18-0" edges="09-0_09 0910 1015 1518 18_18-0 "/>
<route id="9-0-20-0" edges="09-0_09 0910 1015 1521 2120 20_20-0 "/>
<route id="9-0-22-0" edges="09-0_09 0910 1011 1114 1422 22_22-0 "/>
<route id="9-0-23-0" edges="09-0_09 0910 1015 1521 2120 2023 23_23-0 "/>
<route id="12-0-1-0" edges="12-0_12 1203 0301 01_01-0 "/>
<route id="12-0-1-1" edges="12-0_12 1203 0301 01_01-1 "/>
<route id="12-0-2-0" edges="12-0_12 1211 1110 1009 0905 0506 0602 02_02-0 "/>
<route id="12-0-2-1" edges="12-0_12 1211 1110 1009 0905 0506 0602 02_02-1 "/>
<route id="12-0-3-0" edges="12-0_12 1203 03_03-0 "/>
<route id="12-0-4-0" edges="12-0_12 1203 0304 04_04-0 "/>
<route id="12-0-5-0" edges="12-0_12 1211 1110 1009 0905 05_05-0 "/>
<route id="12-0-6-0" edges="12-0_12 1211 1110 1009 0905 0506 06_06-0 "/>
<route id="12-0-7-0" edges="12-0_12 1211 1110 1016 1617 1707 07_07-0 "/>
<route id="12-0-7-1" edges="12-0_12 1211 1110 1016 1617 1707 07_07-1 "/>
<route id="12-0-9-0" edges="12-0_12 1211 1110 1009 09_09-0 "/>
<route id="12-0-13-0" edges="12-0_12 1213 13_13-0 "/>
<route id="12-0-13-1" edges="12-0_12 1213 13_13-1 "/>
<route id="12-0-14-0" edges="12-0_12 1211 1114 14_14-0 "/>
<route id="12-0-17-0" edges="12-0_12 1211 1110 1016 1617 17_17-0 "/>
<route id="12-0-18-0" edges="12-0_12 1211 1110 1015 1518 18_18-0 "/>
<route id="12-0-20-0" edges="12-0_12 1211 1110 1015 1521 2120 20_20-0 "/>
<route id="12-0-22-0" edges="12-0_12 1211 1114 1422 22_22-0 "/>
<route id="12-0-23-0" edges="12-0_12 1211 1114 1422 2223 23_23-0 "/>
<route id="13-0-1-0" edges="13-0_13 1312 1203 0301 01_01-0 "/>
<route id="13-0-1-1" edges="13-0_13 1312 1203 0301 01_01-1 "/>
<route id="13-0-2-0" edges="13-0_13 1323 2320 2019 1918 1816 1608 0806 0602 02_02-0 "/>
<route id="13-0-2-1" edges="13-0_13 1323 2320 2019 1918 1816 1608 0806 0602 02_02-1 "/>
<route id="13-0-3-0" edges="13-0_13 1312 1203 03_03-0 "/>
<route id="13-0-4-0" edges="13-0_13 1323 2322 2214 1411 1104 04_04-0 "/>
<route id="13-0-5-0" edges="13-0_13 1323 2320 2021 2115 1510 1009 0905 05_05-0 "/>
<route id="13-0-6-0" edges="13-0_13 1323 2320 2019 1918 1816 1608 0806 06_06-0 "/>
<route id="13-0-7-0" edges="13-0_13 1323 2320 2019 1917 1707 07_07-0 "/>
<route id="13-0-7-1" edges="13-0_13 1323 2320 2019 1917 1707 07_07-1 "/>
<route id="13-0-9-0" edges="13-0_13 1323 2320 2021 2115 1510 1009 09_09-0 "/>
<route id="13-0-12-0" edges="13-0_13 1312 12_12-0 "/>
<route id="13-0-14-0" edges="13-0_13 1323 2322 2214 14_14-0 "/>
<route id="13-0-17-0" edges="13-0_13 1323 2320 2019 1917 17_17-0 "/>
<route id="13-0-18-0" edges="13-0_13 1323 2320 2019 1918 18_18-0 "/>
<route id="13-0-20-0" edges="13-0_13 1323 2320 20_20-0 "/>
<route id="13-0-22-0" edges="13-0_13 1323 2322 22_22-0 "/>
<route id="13-0-23-0" edges="13-0_13 1323 23_23-0 "/>
<route id="13-1-1-0" edges="13-1_13 1312 1203 0301 01_01-0 "/>
<route id="13-1-1-1" edges="13-1_13 1312 1203 0301 01_01-1 "/>
<route id="13-1-2-0" edges="13-1_13 1323 2320 2019 1918 1816 1608 0806 0602 02_02-0 "/>
<route id="13-1-2-1" edges="13-1_13 1323 2320 2019 1918 1816 1608 0806 0602 02_02-1 "/>
<route id="13-1-3-0" edges="13-1_13 1312 1203 03_03-0 "/>
<route id="13-1-4-0" edges="13-1_13 1323 2322 2214 1411 1104 04_04-0 "/>
<route id="13-1-5-0" edges="13-1_13 1323 2320 2021 2115 1510 1009 0905 05_05-0 "/>
<route id="13-1-6-0" edges="13-1_13 1323 2320 2019 1918 1816 1608 0806 06_06-0 "/>
<route id="13-1-7-0" edges="13-1_13 1323 2320 2019 1917 1707 07_07-0 "/>
<route id="13-1-7-1" edges="13-1_13 1323 2320 2019 1917 1707 07_07-1 "/>
<route id="13-1-9-0" edges="13-1_13 1323 2320 2021 2115 1510 1009 09_09-0 "/>
<route id="13-1-12-0" edges="13-1_13 1312 12_12-0 "/>
<route id="13-1-14-0" edges="13-1_13 1323 2322 2214 14_14-0 "/>
<route id="13-1-17-0" edges="13-1_13 1323 2320 2019 1917 17_17-0 "/>
<route id="13-1-18-0" edges="13-1_13 1323 2320 2019 1918 18_18-0 "/>
<route id="13-1-20-0" edges="13-1_13 1323 2320 20_20-0 "/>
<route id="13-1-22-0" edges="13-1_13 1323 2322 22_22-0 "/>
<route id="13-1-23-0" edges="13-1_13 1323 23_23-0 "/>
<route id="14-0-1-0" edges="14-0_14 1411 1104 0403 0301 01_01-0 "/>
<route id="14-0-1-1" edges="14-0_14 1411 1104 0403 0301 01_01-1 "/>
<route id="14-0-2-0" edges="14-0_14 1411 1110 1009 0905 0506 0602 02_02-0 "/>
<route id="14-0-2-1" edges="14-0_14 1411 1110 1009 0905 0506 0602 02_02-1 "/>
<route id="14-0-3-0" edges="14-0_14 1411 1104 0403 03_03-0 "/>
<route id="14-0-4-0" edges="14-0_14 1411 1104 04_04-0 "/>
<route id="14-0-5-0" edges="14-0_14 1411 1110 1009 0905 05_05-0 "/>
<route id="14-0-6-0" edges="14-0_14 1411 1110 1009 0905 0506 06_06-0 "/>
<route id="14-0-7-0" edges="14-0_14 1411 1110 1016 1617 1707 07_07-0 "/>
<route id="14-0-7-1" edges="14-0_14 1411 1110 1016 1617 1707 07_07-1 "/>
<route id="14-0-9-0" edges="14-0_14 1411 1110 1009 09_09-0 "/>
<route id="14-0-12-0" edges="14-0_14 1411 1112 12_12-0 "/>
<route id="14-0-13-0" edges="14-0_14 1422 2223 2313 13_13-0 "/>
<route id="14-0-13-1" edges="14-0_14 1422 2223 2313 13_13-1 "/>
<route id="14-0-17-0" edges="14-0_14 1411 1110 1016 1617 17_17-0 "/>
<route id="14-0-18-0" edges="14-0_14 1415 1518 18_18-0 "/>
<route id="14-0-20-0" edges="14-0_14 1415 1521 2120 20_20-0 "/>
<route id="14-0-22-0" edges="14-0_14 1422 22_22-0 "/>
<route id="14-0-23-0" edges="14-0_14 1422 2223 23_23-0 "/>
<route id="17-0-1-0" edges="17-0_17 1716 1608 0806 0605 0504 0403 0301 01_01-0 "/>
<route id="17-0-1-1" edges="17-0_17 1716 1608 0806 0605 0504 0403 0301 01_01-1 "/>
<route id="17-0-2-0" edges="17-0_17 1716 1608 0806 0602 02_02-0 "/>
<route id="17-0-2-1" edges="17-0_17 1716 1608 0806 0602 02_02-1 "/>
<route id="17-0-3-0" edges="17-0_17 1716 1608 0806 0605 0504 0403 03_03-0 "/>
<route id="17-0-4-0" edges="17-0_17 1716 1608 0806 0605 0504 04_04-0 "/>
<route id="17-0-5-0" edges="17-0_17 1716 1608 0806 0605 05_05-0 "/>
<route id="17-0-6-0" edges="17-0_17 1716 1608 0806 06_06-0 "/>
<route id="17-0-7-0" edges="17-0_17 1707 07_07-0 "/>
<route id="17-0-7-1" edges="17-0_17 1707 07_07-1 "/>
<route id="17-0-9-0" edges="17-0_17 1716 1608 0809 09_09-0 "/>
<route id="17-0-12-0" edges="17-0_17 1716 1610 1011 1112 12_12-0 "/>
<route id="17-0-13-0" edges="17-0_17 1719 1920 2023 2313 13_13-0 "/>
<route id="17-0-13-1" edges="17-0_17 1719 1920 2023 2313 13_13-1 "/>
<route id="17-0-14-0" edges="17-0_17 1716 1610 1011 1114 14_14-0 "/>
<route id="17-0-18-0" edges="17-0_17 1716 1618 18_18-0 "/>
<route id="17-0-20-0" edges="17-0_17 1719 1920 20_20-0 "/>
<route id="17-0-22-0" edges="17-0_17 1716 1610 1011 1114 1422 22_22-0 "/>
<route id="17-0-23-0" edges="17-0_17 1719 1920 2023 23_23-0 "/>
<route id="18-0-1-0" edges="18-0_18 1816 1608 0806 0605 0504 0403 0301 01_01-0 "/>
<route id="18-0-1-1" edges="18-0_18 1816 1608 0806 0605 0504 0403 0301 01_01-1 "/>
<route id="18-0-2-0" edges="18-0_18 1816 1608 0806 0602 02_02-0 "/>
<route id="18-0-2-1" edges="18-0_18 1816 1608 0806 0602 02_02-1 "/>
<route id="18-0-3-0" edges="18-0_18 1816 1608 0806 0605 0504 0403 03_03-0 "/>
<route id="18-0-4-0" edges="18-0_18 1816 1608 0806 0605 0504 04_04-0 "/>
<route id="18-0-5-0" edges="18-0_18 1816 1608 0806 0605 05_05-0 "/>
<route id="18-0-6-0" edges="18-0_18 1816 1608 0806 06_06-0 "/>
<route id="18-0-7-0" edges="18-0_18 1816 1617 1707 07_07-0 "/>
<route id="18-0-7-1" edges="18-0_18 1816 1617 1707 07_07-1 "/>
<route id="18-0-9-0" edges="18-0_18 1816 1608 0809 09_09-0 "/>
<route id="18-0-12-0" edges="18-0_18 1815 1510 1011 1112 12_12-0 "/>
<route id="18-0-13-0" edges="18-0_18 1819 1920 2023 2313 13_13-0 "/>
<route id="18-0-13-1" edges="18-0_18 1819 1920 2023 2313 13_13-1 "/>
<route id="18-0-14-0" edges="18-0_18 1815 1514 14_14-0 "/>
<route id="18-0-17-0" edges="18-0_18 1816 1617 17_17-0 "/>
<route id="18-0-20-0" edges="18-0_18 1819 1920 20_20-0 "/>
<route id="18-0-22-0" edges="18-0_18 1815 1514 1422 22_22-0 "/>
<route id="18-0-23-0" edges="18-0_18 1819 1920 2023 23_23-0 "/>
<route id="20-0-1-0" edges="20-0_20 2021 2115 1510 1009 0905 0504 0403 0301 01_01-0 "/>
<route id="20-0-1-1" edges="20-0_20 2021 2115 1510 1009 0905 0504 0403 0301 01_01-1 "/>
<route id="20-0-2-0" edges="20-0_20 2019 1918 1816 1608 0806 0602 02_02-0 "/>
<route id="20-0-2-1" edges="20-0_20 2019 1918 1816 1608 0806 0602 02_02-1 "/>
<route id="20-0-3-0" edges="20-0_20 2021 2115 1510 1009 0905 0504 0403 03_03-0 "/>
<route id="20-0-4-0" edges="20-0_20 2021 2115 1510 1009 0905 0504 04_04-0 "/>
<route id="20-0-5-0" edges="20-0_20 2021 2115 1510 1009 0905 05_05-0 "/>
<route id="20-0-6-0" edges="20-0_20 2019 1918 1816 1608 0806 06_06-0 "/>
<route id="20-0-7-0" edges="20-0_20 2019 1917 1707 07_07-0 "/>
<route id="20-0-7-1" edges="20-0_20 2019 1917 1707 07_07-1 "/>
<route id="20-0-9-0" edges="20-0_20 2021 2115 1510 1009 09_09-0 "/>
<route id="20-0-12-0" edges="20-0_20 2021 2115 1510 1011 1112 12_12-0 "/>
<route id="20-0-13-0" edges="20-0_20 2023 2313 13_13-0 "/>
<route id="20-0-13-1" edges="20-0_20 2023 2313 13_13-1 "/>
<route id="20-0-14-0" edges="20-0_20 2021 2115 1514 14_14-0 "/>
<route id="20-0-17-0" edges="20-0_20 2019 1917 17_17-0 "/>
<route id="20-0-18-0" edges="20-0_20 2019 1918 18_18-0 "/>
<route id="20-0-22-0" edges="20-0_20 2021 2122 22_22-0 "/>
<route id="20-0-23-0" edges="20-0_20 2023 23_23-0 "/>
<route id="22-0-1-0" edges="22-0_22 2214 1411 1104 0403 0301 01_01-0 "/>
<route id="22-0-1-1" edges="22-0_22 2214 1411 1104 0403 0301 01_01-1 "/>
<route id="22-0-2-0" edges="22-0_22 2214 1411 1110 1009 0905 0506 0602 02_02-0 "/>
<route id="22-0-2-1" edges="22-0_22 2214 1411 1110 1009 0905 0506 0602 02_02-1 "/>
<route id="22-0-3-0" edges="22-0_22 2214 1411 1104 0403 03_03-0 "/>
<route id="22-0-4-0" edges="22-0_22 2214 1411 1104 04_04-0 "/>
<route id="22-0-5-0" edges="22-0_22 2214 1411 1110 1009 0905 05_05-0 "/>
<route id="22-0-6-0" edges="22-0_22 2214 1411 1110 1009 0905 0506 06_06-0 "/>
<route id="22-0-7-0" edges="22-0_22 2214 1411 1110 1016 1617 1707 07_07-0 "/>
<route id="22-0-7-1" edges="22-0_22 2214 1411 1110 1016 1617 1707 07_07-1 "/>
<route id="22-0-9-0" edges="22-0_22 2214 1411 1110 1009 09_09-0 "/>
<route id="22-0-12-0" edges="22-0_22 2214 1411 1112 12_12-0 "/>
<route id="22-0-13-0" edges="22-0_22 2223 2313 13_13-0 "/>
<route id="22-0-13-1" edges="22-0_22 2223 2313 13_13-1 "/>
<route id="22-0-14-0" edges="22-0_22 2214 14_14-0 "/>
<route id="22-0-17-0" edges="22-0_22 2214 1411 1110 1016 1617 17_17-0 "/>
<route id="22-0-18-0" edges="22-0_22 2214 1415 1518 18_18-0 "/>
<route id="22-0-20-0" edges="22-0_22 2221 2120 20_20-0 "/>
<route id="22-0-23-0" edges="22-0_22 2223 23_23-0 "/>
<route id="23-0-1-0" edges="23-0_23 2322 2214 1411 1104 0403 0301 01_01-0 "/>
<route id="23-0-1-1" edges="23-0_23 2322 2214 1411 1104 0403 0301 01_01-1 "/>
<route id="23-0-2-0" edges="23-0_23 2320 2019 1918 1816 1608 0806 0602 02_02-0 "/>
<route id="23-0-2-1" edges="23-0_23 2320 2019 1918 1816 1608 0806 0602 02_02-1 "/>
<route id="23-0-3-0" edges="23-0_23 2322 2214 1411 1104 0403 03_03-0 "/>
<route id="23-0-4-0" edges="23-0_23 2322 2214 1411 1104 04_04-0 "/>
<route id="23-0-5-0" edges="23-0_23 2320 2021 2115 1510 1009 0905 05_05-0 "/>
<route id="23-0-6-0" edges="23-0_23 2320 2019 1918 1816 1608 0806 06_06-0 "/>
<route id="23-0-7-0" edges="23-0_23 2320 2019 1917 1707 07_07-0 "/>
<route id="23-0-7-1" edges="23-0_23 2320 2019 1917 1707 07_07-1 "/>
<route id="23-0-9-0" edges="23-0_23 2320 2021 2115 1510 1009 09_09-0 "/>
<route id="23-0-12-0" edges="23-0_23 2322 2214 1411 1112 12_12-0 "/>
<route id="23-0-13-0" edges="23-0_23 2313 13_13-0 "/>
<route id="23-0-13-1" edges="23-0_23 2313 13_13-1 "/>
<route id="23-0-14-0" edges="23-0_23 2322 2214 14_14-0 "/>
<route id="23-0-17-0" edges="23-0_23 2320 2019 1917 17_17-0 "/>
<route id="23-0-18-0" edges="23-0_23 2320 2019 1918 18_18-0 "/>
<route id="23-0-20-0" edges="23-0_23 2320 20_20-0 "/>
<route id="23-0-22-0" edges="23-0_23 2322 22_22-0 "/>

<flow id="f_1-0to12-0_0" type="passenger" begin="0" end="900" departLane="best" number="8" route="1-0-12-0"> </flow>
<flow id="f_1-0to13-0_0" type="passenger" begin="0" end="900" departLane="best" number="8" route="1-0-13-0"> </flow>
<flow id="f_1-1to2-1_0" type="passenger" begin="0" end="900" departLane="best" number="14" route="1-1-2-1"> </flow>
<flow id="f_2-0to18-0_0" type="passenger" begin="0" end="900" departLane="best" number="12" route="2-0-18-0"> </flow>
<flow id="f_2-1to1-1_0" type="passenger" begin="0" end="900" departLane="best" number="16" route="2-1-1-1"> </flow>
<flow id="f_3-0to5-0_0" type="passenger" begin="0" end="900" departLane="best" number="7" route="3-0-5-0"> </flow>
<flow id="f_3-0to6-0_0" type="passenger" begin="0" end="900" departLane="best" number="7" route="3-0-6-0"> </flow>
<flow id="f_4-0to22-0_0" type="passenger" begin="0" end="900" departLane="best" number="6" route="4-0-22-0"> </flow>
<flow id="f_4-0to23-0_0" type="passenger" begin="0" end="900" departLane="best" number="6" route="4-0-23-0"> </flow>
<flow id="f_5-0to9-0_0" type="passenger" begin="0" end="900" departLane="best" number="8" route="5-0-9-0"> </flow>
<flow id="f_5-0to20-0_0" type="passenger" begin="0" end="900" departLane="best" number="8" route="5-0-20-0"> </flow>
<flow id="f_6-0to4-0_0" type="passenger" begin="0" end="900" departLane="best" number="7" route="6-0-4-0"> </flow>
<flow id="f_6-0to5-0_0" type="passenger" begin="0" end="900" departLane="best" number="7" route="6-0-5-0"> </flow>
<flow id="f_7-0to23-0_0" type="passenger" begin="0" end="900" departLane="best" number="6" route="7-0-23-0"> </flow>
<flow id="f_7-0to13-1_0" type="passenger" begin="0" end="900" departLane="best" number="6" route="7-0-13-1"> </flow>
<flow id="f_7-1to9-0_0" type="passenger" begin="0" end="900" departLane="best" number="16" route="7-1-9-0"> </flow>
<flow id="f_9-0to7-1_0" type="passenger" begin="0" end="900" departLane="best" number="14" route="9-0-7-1"> </flow>
<flow id="f_12-0to17-0_0" type="passenger" begin="0" end="900" departLane="best" number="12" route="12-0-17-0"> </flow>
<flow id="f_13-0to3-0_0" type="passenger" begin="0" end="900" departLane="best" number="8" route="13-0-3-0"> </flow>
<flow id="f_13-0to1-0_0" type="passenger" begin="0" end="900" departLane="best" number="8" route="13-0-1-0"> </flow>
<flow id="f_13-1to17-0_0" type="passenger" begin="0" end="900" departLane="best" number="7" route="13-1-17-0"> </flow>
<flow id="f_13-1to7-0_0" type="passenger" begin="0" end="900" departLane="best" number="7" route="13-1-7-0"> </flow>
<flow id="f_14-0to18-0_0" type="passenger" begin="0" end="900" departLane="best" number="12" route="14-0-18-0"> </flow>
<flow id="f_17-0to12-0_0" type="passenger" begin="0" end="900" departLane="best" number="16" route="17-0-12-0"> </flow>
<flow id="f_18-0to14-0_0" type="passenger" begin="0" end="900" departLane="best" number="14" route="18-0-14-0"> </flow>
<flow id="f_20-0to9-0_0" type="passenger" begin="0" end="900" departLane="best" number="6" route="20-0-9-0"> </flow>
<flow id="f_20-0to5-0_0" type="passenger" begin="0" end="900" departLane="best" number="6" route="20-0-5-0"> </flow>
<flow id="f_23-0to14-0_0" type="passenger" begin="0" end="900" departLane="best" number="8" route="23-0-14-0"> </flow>
<flow id="f_23-0to4-0_0" type="passenger" begin="0" end="900" departLane="best" number="8" route="23-0-4-0"> </flow>
<flow id="f_1-0to12-0_900" type="passenger" begin="900" end="1800" departLane="best" number="16" route="1-0-12-0"> </flow>
<flow id="f_1-0to13-0_900" type="passenger" begin="900" end="1800" departLane="best" number="16" route="1-0-13-0"> </flow>
<flow id="f_1-1to2-1_900" type="passenger" begin="900" end="1800" departLane="best" number="28" route="1-1-2-1"> </flow>
<flow id="f_2-0to18-0_900" type="passenger" begin="900" end="1800" departLane="best" number="24" route="2-0-18-0"> </flow>
<flow id="f_2-1to1-1_900" type="passenger" begin="900" end="1800" departLane="best" number="32" route="2-1-1-1"> </flow>
<flow id="f_3-0to5-0_900" type="passenger" begin="900" end="1800" departLane="best" number="14" route="3-0-5-0"> </flow>
<flow id="f_3-0to6-0_900" type="passenger" begin="900" end="1800" departLane="best" number="14" route="3-0-6-0"> </flow>
<flow id="f_4-0to22-0_900" type="passenger" begin="900" end="1800" departLane="best" number="12" route="4-0-22-0"> </flow>
<flow id="f_4-0to23-0_900" type="passenger" begin="900" end="1800" departLane="best" number="12" route="4-0-23-0"> </flow>
<flow id="f_5-0to9-0_900" type="passenger" begin="900" end="1800" departLane="best" number="16" route="5-0-9-0"> </flow>
<flow id="f_5-0to20-0_900" type="passenger" begin="900" end="1800" departLane="best" number="16" route="5-0-20-0"> </flow>
<flow id="f_6-0to4-0_900" type="passenger" begin="900" end="1800" departLane="best" number="14" route="6-0-4-0"> </flow>