<?xml version="1.0" encoding="UTF-8"?>

<net version="1.20" junctionCornerDetail="5" limitTurnSpeed="5.50" xmlns:xsi="http://www.w3.org/2001/XMLSchema-instance" xsi:noNamespaceSchemaLocation="http://sumo.dlr.de/xsd/net_file.xsd">

    <location netOffset="50.00,1050.00" convBoundary="-50.00,-50.00,750.00,1150.00" origBoundary="-50.00,-1050.00,650.00,50.00" projParameter="!"/>

    <edge id=":01_0" function="internal">
        <lane id=":01_0_0" index="0" allow="passenger" speed="33.33" length="15.00" width="3.50" shape="48.25,1057.50 48.25,1042.50"/>
    </edge>
    <edge id=":01_1" function="internal">
        <lane id=":01_1_0" index="0" allow="passenger" speed="8.01" length="14.13" width="3.50" shape="48.25,1057.50 49.08,1054.22 51.24,1051.24 54.22,1049.08 57.50,1048.25"/>
    </edge>
    <edge id=":01_2" function="internal">
        <lane id=":01_2_0" index="0" allow="passenger" speed="6.62" length="9.27" width="3.50" shape="57.50,1051.75 54.98,1052.11 53.19,1053.19 52.11,1054.98 51.75,1057.50"/>
    </edge>
    <edge id=":01_3" function="internal">
        <lane id=":01_3_0" index="0" allow="passenger" speed="33.33" length="15.00" width="3.50" shape="57.50,1051.75 42.50,1051.75"/>
    </edge>
    <edge id=":01_4" function="internal">
        <lane id=":01_4_0" index="0" allow="passenger" speed="8.22" length="14.92" width="3.50" shape="57.50,1051.75 53.45,1051.17 50.56,1049.44 48.83,1046.55 48.25,1042.50"/>
    </edge>
    <edge id=":01_5" function="internal">
        <lane id=":01_5_0" index="0" allow="passenger" speed="6.62" length="9.27" width="3.50" shape="51.75,1042.50 52.11,1045.02 53.19,1046.81 54.98,1047.89 57.50,1048.25"/>
    </edge>
    <edge id=":01_6" function="internal">
        <lane id=":01_6_0" index="0" allow="passenger" speed="33.33" length="15.00" width="3.50" shape="51.75,1042.50 51.75,1057.50"/>
    </edge>
    <edge id=":01_7" function="internal">
        <lane id=":01_7_0" index="0" allow="passenger" speed="8.01" length="14.13" width="3.50" shape="51.75,1042.50 50.92,1045.78 48.76,1048.76 45.78,1050.92 42.50,1051.75"/>
    </edge>
    <edge id=":01_8" function="internal">
        <lane id=":01_8_0" index="0" allow="passenger" speed="6.62" length="9.27" width="3.50" shape="42.50,1048.25 45.02,1047.89 46.81,1046.81 47.89,1045.02 48.25,1042.50"/>
    </edge>
    <edge id=":01_9" function="internal">
        <lane id=":01_9_0" index="0" allow="passenger" speed="33.33" length="15.00" width="3.50" shape="42.50,1048.25 57.50,1048.25"/>
    </edge>
    <edge id=":02_0" function="internal">
        <lane id=":02_0_0" index="0" allow="passenger" speed="6.62" length="9.27" width="3.50" shape="498.25,1057.50 497.89,1054.98 496.81,1053.19 495.02,1052.11 492.50,1051.75"/>
    </edge>
    <edge id=":02_1" function="internal">
        <lane id=":02_1_0" index="0" allow="passenger" speed="33.33" length="15.00" width="3.50" shape="498.25,1057.50 498.25,1042.50"/>
    </edge>
    <edge id=":02_2" function="internal">
        <lane id=":02_2_0" index="0" allow="passenger" speed="33.33" length="15.00" width="3.50" shape="507.50,1051.75 492.50,1051.75"/>
    </edge>
    <edge id=":02_3" function="internal">
        <lane id=":02_3_0" index="0" allow="passenger" speed="8.01" length="14.13" width="3.50" shape="507.50,1051.75 504.22,1050.92 501.24,1048.76 499.08,1045.78 498.25,1042.50"/>
    </edge>
    <edge id=":02_4" function="internal">
        <lane id=":02_4_0" index="0" allow="passenger" speed="6.62" length="9.27" width="3.50" shape="501.75,1042.50 502.11,1045.02 503.19,1046.81 504.98,1047.89 507.50,1048.25"/>
    </edge>
    <edge id=":02_5" function="internal">
        <lane id=":02_5_0" index="0" allow="passenger" speed="33.33" length="15.00" width="3.50" shape="501.75,1042.50 501.75,1057.50"/>
    </edge>
    <edge id=":02_6" function="internal">
        <lane id=":02_6_0" index="0" allow="passenger" speed="8.22" length="14.92" width="3.50" shape="501.75,1042.50 501.17,1046.55 499.44,1049.44 496.55,1051.17 492.50,1051.75"/>
    </edge>
    <edge id=":02_7" function="internal">
        <lane id=":02_7_0" index="0" allow="passenger" speed="6.62" length="9.27" width="3.50" shape="492.50,1048.25 495.02,1047.89 496.81,1046.81 497.89,1045.02 498.25,1042.50"/>
    </edge>
    <edge id=":02_8" function="internal">
        <lane id=":02_8_0" index="0" allow="passenger" speed="33.33" length="15.00" width="3.50" shape="492.50,1048.25 507.50,1048.25"/>
    </edge>
    <edge id=":02_9" function="internal">
        <lane id=":02_9_0" index="0" allow="passenger" speed="8.01" length="14.13" width="3.50" shape="492.50,1048.25 495.78,1049.08 498.76,1051.24 500.92,1054.22 501.75,1057.50"/>
    </edge>
    <edge id=":03_0" function="internal">
        <lane id=":03_0_0" index="0" allow="passenger" speed="6.62" length="9.27" width="3.50" shape="48.25,957.50 47.89,954.98 46.81,953.19 45.02,952.11 42.50,951.75"/>
    </edge>
    <edge id=":03_1" function="internal">
        <lane id=":03_1_0" index="0" allow="passenger" speed="33.33" length="15.00" width="3.50" shape="48.25,957.50 48.25,942.50"/>
    </edge>
    <edge id=":03_2" function="internal">
        <lane id=":03_2_0" index="0" allow="passenger" speed="8.01" length="14.13" width="3.50" shape="48.25,957.50 49.08,954.22 51.24,951.24 54.22,949.08 57.50,948.25"/>
    </edge>
    <edge id=":03_3" function="internal">
        <lane id=":03_3_0" index="0" allow="passenger" speed="6.62" length="9.27" width="3.50" shape="57.50,951.75 54.98,952.11 53.19,953.19 52.11,954.98 51.75,957.50"/>
    </edge>
    <edge id=":03_4" function="internal">
        <lane id=":03_4_0" index="0" allow="passenger" speed="33.33" length="15.00" width="3.50" shape="57.50,951.75 42.50,951.75"/>
    </edge>
    <edge id=":03_5" function="internal">
        <lane id=":03_5_0" index="0" allow="passenger" speed="8.01" length="14.13" width="3.50" shape="57.50,951.75 54.22,950.92 51.24,948.76 49.08,945.78 48.25,942.50"/>
    </edge>
    <edge id=":03_6" function="internal">
        <lane id=":03_6_0" index="0" allow="passenger" speed="6.62" length="9.27" width="3.50" shape="51.75,942.50 52.11,945.02 53.19,946.81 54.98,947.89 57.50,948.25"/>
    </edge>
    <edge id=":03_7" function="internal">
        <lane id=":03_7_0" index="0" allow="passenger" speed="33.33" length="15.00" width="3.50" shape="51.75,942.50 51.75,957.50"/>
    </edge>
    <edge id=":03_8" function="internal">
        <lane id=":03_8_0" index="0" allow="passenger" speed="8.01" length="14.13" width="3.50" shape="51.75,942.50 50.92,945.78 48.76,948.76 45.78,950.92 42.50,951.75"/>
    </edge>
    <edge id=":03_9" function="internal">
        <lane id=":03_9_0" index="0" allow="passenger" speed="6.62" length="9.27" width="3.50" shape="42.50,948.25 45.02,947.89 46.81,946.81 47.89,945.02 48.25,942.50"/>
    </edge>
    <edge id=":03_10" function="internal">
        <lane id=":03_10_0" index="0" allow="passenger" speed="33.33" length="15.00" width="3.50" shape="42.50,948.25 57.50,948.25"/>
    </edge>
    <edge id=":03_11" function="internal">
        <lane id=":03_11_0" index="0" allow="passenger" speed="8.01" length="14.13" width="3.50" shape="42.50,948.25 45.78,949.08 48.76,951.24 50.92,954.22 51.75,957.50"/>
    </edge>
    <edge id=":04_0" function="internal">
        <lane id=":04_0_0" index="0" allow="passenger" speed="6.62" length="9.27" width="3.50" shape="198.25,957.50 197.89,954.98 196.81,953.19 195.02,952.11 192.50,951.75"/>
    </edge>
    <edge id=":04_1" function="internal">
        <lane id=":04_1_0" index="0" allow="passenger" speed="33.33" length="15.00" width="3.50" shape="198.25,957.50 198.25,942.50"/>
    </edge>
    <edge id=":04_2" function="internal">
        <lane id=":04_2_0" index="0" allow="passenger" speed="8.01" length="14.13" width="3.50" shape="198.25,957.50 199.08,954.22 201.24,951.24 204.22,949.08 207.50,948.25"/>
    </edge>
    <edge id=":04_3" function="internal">
        <lane id=":04_3_0" index="0" allow="passenger" speed="6.62" length="9.27" width="3.50" shape="207.50,951.75 204.98,952.11 203.19,953.19 202.11,954.98 201.75,957.50"/>
    </edge>
    <edge id=":04_4" function="internal">
        <lane id=":04_4_0" index="0" allow="passenger" speed="33.33" length="15.00" width="3.50" shape="207.50,951.75 192.50,951.75"/>
    </edge>
    <edge id=":04_5" function="internal">
        <lane id=":04_5_0" index="0" allow="passenger" speed="8.01" length="14.13" width="3.50" shape="207.50,951.75 204.22,950.92 201.24,948.76 199.08,945.78 198.25,942.50"/>
    </edge>
    <edge id=":04_6" function="internal">
        <lane id=":04_6_0" index="0" allow="passenger" speed="6.62" length="9.27" width="3.50" shape="201.75,942.50 202.11,945.02 203.19,946.81 204.98,947.89 207.50,948.25"/>
    </edge>
    <edge id=":04_7" function="internal">
        <lane id=":04_7_0" index="0" allow="passenger" speed="33.33" length="15.00" width="3.50" shape="201.75,942.50 201.75,957.50"/>
    </edge>
    <edge id=":04_8" function="internal">
        <lane id=":04_8_0" index="0" allow="passenger" speed="8.01" length="14.13" width="3.50" shape="201.75,942.50 200.92,945.78 198.76,948.76 195.78,950.92 192.50,951.75"/>
    </edge>
    <edge id=":04_9" function="internal">
        <lane id=":04_9_0" index="0" allow="passenger" speed="6.62" length="9.27" width="3.50" shape="192.50,948.25 195.02,947.89 196.81,946.81 197.89,945.02 198.25,942.50"/>
    </edge>
    <edge id=":04_10" function="internal">
        <lane id=":04_10_0" index="0" allow="passenger" speed="33.33" length="15.00" width="3.50" shape="192.50,948.25 207.50,948.25"/>
    </edge>
    <edge id=":04_11" function="internal">
        <lane id=":04_11_0" index="0" allow="passenger" speed="8.01" length="14.13" width="3.50" shape="192.50,948.25 195.78,949.08 198.76,951.24 200.92,954.22 201.75,957.50"/>
    </edge>
    <edge id=":05_0" function="internal">
        <lane id=":05_0_0" index="0" allow="passenger" speed="6.62" length="9.27" width="3.50" shape="348.25,957.50 347.89,954.98 346.81,953.19 345.02,952.11 342.50,951.75"/>
    </edge>
    <edge id=":05_1" function="internal">
        <lane id=":05_1_0" index="0" allow="passenger" speed="33.33" length="15.00" width="3.50" shape="348.25,957.50 348.25,942.50"/>
    </edge>
    <edge id=":05_2" function="internal">
        <lane id=":05_2_0" index="0" allow="passenger" speed="8.01" length="14.13" width="3.50" shape="348.25,957.50 349.08,954.22 351.24,951.24 354.22,949.08 357.50,948.25"/>
    </edge>
    <edge id=":05_3" function="internal">
        <lane id=":05_3_0" index="0" allow="passenger" speed="6.62" length="9.27" width="3.50" shape="357.50,951.75 354.98,952.11 353.19,953.19 352.11,954.98 351.75,957.50"/>
    </edge>
    <edge id=":05_4" function="internal">
        <lane id=":05_4_0" index="0" allow="passenger" speed="33.33" length="15.00" width="3.50" shape="357.50,951.75 342.50,951.75"/>
    </edge>
    <edge id=":05_5" function="internal">
        <lane id=":05_5_0" index="0" allow="passenger" speed="8.01" length="14.13" width="3.50" shape="357.50,951.75 354.22,950.92 351.24,948.76 349.08,945.78 348.25,942.50"/>
    </edge>
    <edge id=":05_6" function="internal">
        <lane id=":05_6_0" index="0" allow="passenger" speed="6.62" length="9.27" width="3.50" shape="351.75,942.50 352.11,945.02 353.19,946.81 354.98,947.89 357.50,948.25"/>
    </edge>
    <edge id=":05_7" function="internal">
        <lane id=":05_7_0" index="0" allow="passenger" speed="33.33" length="15.00" width="3.50" shape="351.75,942.50 351.75,957.50"/>
    </edge>
    <edge id=":05_8" function="internal">
        <lane id=":05_8_0" index="0" allow="passenger" speed="8.01" length="14.13" width="3.50" shape="351.75,942.50 350.92,945.78 348.76,948.76 345.78,950.92 342.50,951.75"/>
    </edge>
    <edge id=":05_9" function="internal">
        <lane id=":05_9_0" index="0" allow="passenger" speed="6.62" length="9.27" width="3.50" shape="342.50,948.25 345.02,947.89 346.81,946.81 347.89,945.02 348.25,942.50"/>
    </edge>
    <edge id=":05_10" function="internal">
        <lane id=":05_10_0" index="0" allow="passenger" speed="33.33" length="15.00" width="3.50" shape="342.50,948.25 357.50,948.25"/>
    </edge>
    <edge id=":05_11" function="internal">
        <lane id=":05_11_0" index="0" allow="passenger" speed="8.01" length="14.13" width="3.50" shape="342.50,948.25 345.78,949.08 348.76,951.24 350.92,954.22 351.75,957.50"/>
    </edge>
    <edge id=":06_0" function="internal">
        <lane id=":06_0_0" index="0" allow="passenger" speed="6.62" length="9.27" width="3.50" shape="498.25,957.50 497.89,954.98 496.81,953.19 495.02,952.11 492.50,951.75"/>
    </edge>
    <edge id=":06_1" function="internal">
        <lane id=":06_1_0" index="0" allow="passenger" speed="33.33" length="15.00" width="3.50" shape="498.25,957.50 498.25,942.50"/>
    </edge>
    <edge id=":06_2" function="internal">
        <lane id=":06_2_0" index="0" allow="passenger" speed="8.01" length="14.13" width="3.50" shape="498.25,957.50 499.08,954.22 501.24,951.24 504.22,949.08 507.50,948.25"/>
    </edge>
    <edge id=":06_3" function="internal">
        <lane id=":06_3_0" index="0" allow="passenger" speed="6.62" length="9.27" width="3.50" shape="507.50,951.75 504.98,952.11 503.19,953.19 502.11,954.98 501.75,957.50"/>
    </edge>
    <edge id=":06_4" function="internal">
        <lane id=":06_4_0" index="0" allow="passenger" speed="33.33" length="15.00" width="3.50" shape="507.50,951.75 492.50,951.75"/>
    </edge>
    <edge id=":06_5" function="internal">
        <lane id=":06_5_0" index="0" allow="passenger" speed="8.01" length="14.13" width="3.50" shape="507.50,951.75 504.22,950.92 501.24,948.76 499.08,945.78 498.25,942.50"/>
    </edge>
    <edge id=":06_6" function="internal">
        <lane id=":06_6_0" index="0" allow="passenger" speed="6.62" length="9.27" width="3.50" shape="501.75,942.50 502.11,945.02 503.19,946.81 504.98,947.89 507.50,948.25"/>
    </edge>
    <edge id=":06_7" function="internal">
        <lane id=":06_7_0" index="0" allow="passenger" speed="33.33" length="15.00" width="3.50" shape="501.75,942.50 501.75,957.50"/>
    </edge>
    <edge id=":06_8" function="internal">
        <lane id=":06_8_0" index="0" allow="passenger" speed="8.01" length="14.13" width="3.50" shape="501.75,942.50 500.92,945.78 498.76,948.76 495.78,950.92 492.50,951.75"/>
    </edge>
    <edge id=":06_9" function="internal">
        <lane id=":06_9_0" index="0" allow="passenger" speed="6.62" length="9.27" width="3.50" shape="492.50,948.25 495.02,947.89 496.81,946.81 497.89,945.02 498.25,942.50"/>
    </edge>
    <edge id=":06_10" function="internal">
        <lane id=":06_10_0" index="0" allow="passenger" speed="33.33" length="15.00" width="3.50" shape="492.50,948.25 507.50,948.25"/>
    </edge>
    <edge id=":06_11" function="internal">
        <lane id=":06_11_0" index="0" allow="passenger" speed="8.01" length="14.13" width="3.50" shape="492.50,948.25 495.78,949.08 498.76,951.24 500.92,954.22 501.75,957.50"/>
    </edge>
    <edge id=":07_0" function="internal">
        <lane id=":07_0_0" index="0" allow="passenger" speed="6.62" length="9.27" width="3.50" shape="648.25,807.50 647.89,804.98 646.81,803.19 645.02,802.11 642.50,801.75"/>
    </edge>
    <edge id=":07_1" function="internal">
        <lane id=":07_1_0" index="0" allow="passenger" speed="33.33" length="15.00" width="3.50" shape="648.25,807.50 648.25,792.50"/>
    </edge>
    <edge id=":07_2" function="internal">
        <lane id=":07_2_0" index="0" allow="passenger" speed="33.33" length="15.00" width="3.50" shape="657.50,801.75 642.50,801.75"/>
    </edge>
    <edge id=":07_3" function="internal">
        <lane id=":07_3_0" index="0" allow="passenger" speed="8.01" length="14.13" width="3.50" shape="657.50,801.75 654.22,800.92 651.24,798.76 649.08,795.78 648.25,792.50"/>
    </edge>
    <edge id=":07_4" function="internal">
        <lane id=":07_4_0" index="0" allow="passenger" speed="6.62" length="9.27" width="3.50" shape="651.75,792.50 652.11,795.02 653.19,796.81 654.98,797.89 657.50,798.25"/>
    </edge>
    <edge id=":07_5" function="internal">
        <lane id=":07_5_0" index="0" allow="passenger" speed="33.33" length="15.00" width="3.50" shape="651.75,792.50 651.75,807.50"/>
    </edge>
    <edge id=":07_6" function="internal">
        <lane id=":07_6_0" index="0" allow="passenger" speed="8.22" length="14.92" width="3.50" shape="651.75,792.50 651.17,796.55 649.44,799.44 646.55,801.17 642.50,801.75"/>
    </edge>
    <edge id=":07_7" function="internal">
        <lane id=":07_7_0" index="0" allow="passenger" speed="6.62" length="9.27" width="3.50" shape="642.50,798.25 645.02,797.89 646.81,796.81 647.89,795.02 648.25,792.50"/>
    </edge>
    <edge id=":07_8" function="internal">
        <lane id=":07_8_0" index="0" allow="passenger" speed="33.33" length="15.00" width="3.50" shape="642.50,798.25 657.50,798.25"/>
    </edge>
    <edge id=":07_9" function="internal">
        <lane id=":07_9_0" index="0" allow="passenger" speed="8.01" length="14.13" width="3.50" shape="642.50,798.25 645.78,799.08 648.76,801.24 650.92,804.22 651.75,807.50"/>
    </edge>
    <edge id=":08_0" function="internal">
        <lane id=":08_0_0" index="0" allow="passenger" speed="6.62" length="9.27" width="3.50" shape="498.25,807.50 497.89,804.98 496.81,803.19 495.02,802.11 492.50,801.75"/>
    </edge>
    <edge id=":08_1" function="internal">
        <lane id=":08_1_0" index="0" allow="passenger" speed="33.33" length="15.00" width="3.50" shape="498.25,807.50 498.25,792.50"/>
    </edge>
    <edge id=":08_2" function="internal">
        <lane id=":08_2_0" index="0" allow="passenger" speed="8.01" length="14.13" width="3.50" shape="498.25,807.50 499.08,804.22 501.24,801.24 504.22,799.08 507.50,798.25"/>
    </edge>
    <edge id=":08_3" function="internal">
        <lane id=":08_3_0" index="0" allow="passenger" speed="6.62" length="9.27" width="3.50" shape="507.50,801.75 504.98,802.11 503.19,803.19 502.11,804.98 501.75,807.50"/>
    </edge>
    <edge id=":08_4" function="internal">
        <lane id=":08_4_0" index="0" allow="passenger" speed="33.33" length="15.00" width="3.50" shape="507.50,801.75 492.50,801.75"/>
    </edge>
    <edge id=":08_5" function="internal">
        <lane id=":08_5_0" index="0" allow="passenger" speed="8.01" length="14.13" width="3.50" shape="507.50,801.75 504.22,800.92 501.24,798.76 499.08,795.78 498.25,792.50"/>
    </edge>
    <edge id=":08_6" function="internal">
        <lane id=":08_6_0" index="0" allow="passenger" speed="6.62" length="9.27" width="3.50" shape="501.75,792.50 502.11,795.02 503.19,796.81 504.98,797.89 507.50,798.25"/>
    </edge>
    <edge id=":08_7" function="internal">
        <lane id=":08_7_0" index="0" allow="passenger" speed="33.33" length="15.00" width="3.50" shape="501.75,792.50 501.75,807.50"/>
    </edge>
    <edge id=":08_8" function="internal">
        <lane id=":08_8_0" index="0" allow="passenger" speed="8.01" length="14.13" width="3.50" shape="501.75,792.50 500.92,795.78 498.76,798.76 495.78,800.92 492.50,801.75"/>
    </edge>
    <edge id=":08_9" function="internal">
        <lane id=":08_9_0" index="0" allow="passenger" speed="6.62" length="9.27" width="3.50" shape="492.50,798.25 495.02,797.89 496.81,796.81 497.89,795.02 498.25,792.50"/>
    </edge>
    <edge id=":08_10" function="internal">
        <lane id=":08_10_0" index="0" allow="passenger" speed="33.33" length="15.00" width="3.50" shape="492.50,798.25 507.50,798.25"/>
    </edge>
    <edge id=":08_11" function="internal">
        <lane id=":08_11_0" index="0" allow="passenger" speed="8.01" length="14.13" width="3.50" shape="492.50,798.25 495.78,799.08 498.76,801.24 500.92,804.22 501.75,807.50"/>
    </edge>
    <edge id=":09_0" function="internal">
        <lane id=":09_0_0" index="0" allow="passenger" speed="6.62" length="9.27" width="3.50" shape="348.25,807.50 347.89,804.98 346.81,803.19 345.02,802.11 342.50,801.75"/>
    </edge>
    <edge id=":09_1" function="internal">
        <lane id=":09_1_0" index="0" allow="passenger" speed="33.33" length="15.00" width="3.50" shape="348.25,807.50 348.25,792.50"/>
    </edge>
    <edge id=":09_2" function="internal">
        <lane id=":09_2_0" index="0" allow="passenger" speed="8.01" length="14.13" width="3.50" shape="348.25,807.50 349.08,804.22 351.24,801.24 354.22,799.08 357.50,798.25"/>
    </edge>
    <edge id=":09_3" function="internal">
        <lane id=":09_3_0" index="0" allow="passenger" speed="6.62" length="9.27" width="3.50" shape="357.50,801.75 354.98,802.11 353.19,803.19 352.11,804.98 351.75,807.50"/>
    </edge>
    <edge id=":09_4" function="internal">
        <lane id=":09_4_0" index="0" allow="passenger" speed="33.33" length="15.00" width="3.50" shape="357.50,801.75 342.50,801.75"/>
    </edge>
    <edge id=":09_5" function="internal">
        <lane id=":09_5_0" index="0" allow="passenger" speed="8.01" length="14.13" width="3.50" shape="357.50,801.75 354.22,800.92 351.24,798.76 349.08,795.78 348.25,792.50"/>
    </edge>
    <edge id=":09_6" function="internal">
        <lane id=":09_6_0" index="0" allow="passenger" speed="6.62" length="9.27" width="3.50" shape="351.75,792.50 352.11,795.02 353.19,796.81 354.98,797.89 357.50,798.25"/>
    </edge>
    <edge id=":09_7" function="internal">
        <lane id=":09_7_0" index="0" allow="passenger" speed="33.33" length="15.00" width="3.50" shape="351.75,792.50 351.75,807.50"/>
    </edge>
    <edge id=":09_8" function="internal">
        <lane id=":09_8_0" index="0" allow="passenger" speed="8.01" length="14.13" width="3.50" shape="351.75,792.50 350.92,795.78 348.76,798.76 345.78,800.92 342.50,801.75"/>
    </edge>
    <edge id=":09_9" function="internal">
        <lane id=":09_9_0" index="0" allow="passenger" speed="6.62" length="9.27" width="3.50" shape="342.50,798.25 345.02,797.89 346.81,796.81 347.89,795.02 348.25,792.50"/>
    </edge>
    <edge id=":09_10" function="internal">
        <lane id=":09_10_0" index="0" allow="passenger" speed="33.33" length="15.00" width="3.50" shape="342.50,798.25 357.50,798.25"/>
    </edge>
    <edge id=":09_11" function="internal">
        <lane id=":09_11_0" index="0" allow="passenger" speed="8.01" length="14.13" width="3.50" shape="342.50,798.25 345.78,799.08 348.76,801.24 350.92,804.22 351.75,807.50"/>
    </edge>
    <edge id=":10_0" function="internal">
        <lane id=":10_0_0" index="0" allow="passenger" speed="6.62" length="9.27" width="3.50" shape="348.25,657.50 347.89,654.98 346.81,653.19 345.02,652.11 342.50,651.75"/>
    </edge>
    <edge id=":10_1" function="internal">
        <lane id=":10_1_0" index="0" allow="passenger" speed="33.33" length="15.00" width="3.50" shape="348.25,657.50 348.25,642.50"/>
    </edge>
    <edge id=":10_2" function="internal">
        <lane id=":10_2_0" index="0" allow="passenger" speed="8.01" length="14.13" width="3.50" shape="348.25,657.50 349.08,654.22 351.24,651.24 354.22,649.08 357.50,648.25"/>
    </edge>
    <edge id=":10_3" function="internal">
        <lane id=":10_3_0" index="0" allow="passenger" speed="6.62" length="9.27" width="3.50" shape="357.50,651.75 354.98,652.11 353.19,653.19 352.11,654.98 351.75,657.50"/>
    </edge>
    <edge id=":10_4" function="internal">
        <lane id=":10_4_0" index="0" allow="passenger" speed="33.33" length="15.00" width="3.50" shape="357.50,651.75 342.50,651.75"/>
    </edge>
    <edge id=":10_5" function="internal">
        <lane id=":10_5_0" index="0" allow="passenger" speed="8.01" length="14.13" width="3.50" shape="357.50,651.75 354.22,650.92 351.24,648.76 349.08,645.78 348.25,642.50"/>
    </edge>
    <edge id=":10_6" function="internal">
        <lane id=":10_6_0" index="0" allow="passenger" speed="6.62" length="9.27" width="3.50" shape="351.75,642.50 352.11,645.02 353.19,646.81 354.98,647.89 357.50,648.25"/>
    </edge>
    <edge id=":10_7" function="internal">
        <lane id=":10_7_0" index="0" allow="passenger" speed="33.33" length="15.00" width="3.50" shape="351.75,642.50 351.75,657.50"/>
    </edge>
    <edge id=":10_8" function="internal">
        <lane id=":10_8_0" index="0" allow="passenger" speed="8.01" length="14.13" width="3.50" shape="351.75,642.50 350.92,645.78 348.76,648.76 345.78,650.92 342.50,651.75"/>
    </edge>
    <edge id=":10_9" function="internal">
        <lane id=":10_9_0" index="0" allow="passenger" speed="6.62" length="9.27" width="3.50" shape="342.50,648.25 345.02,647.89 346.81,646.81 347.89,645.02 348.25,642.50"/>
    </edge>
    <edge id=":10_10" function="internal">
        <lane id=":10_10_0" index="0" allow="passenger" speed="33.33" length="15.00" width="3.50" shape="342.50,648.25 357.50,648.25"/>
    </edge>
    <edge id=":10_11" function="internal">
        <lane id=":10_11_0" index="0" allow="passenger" speed="8.01" length="14.13" width="3.50" shape="342.50,648.25 345.78,649.08 348.76,651.24 350.92,654.22 351.75,657.50"/>
    </edge>
    <edge id=":11_0" function="internal">
        <lane id=":11_0_0" index="0" allow="passenger" speed="6.62" length="9.27" width="3.50" shape="198.25,657.50 197.89,654.98 196.81,653.19 195.02,652.11 192.50,651.75"/>
    </edge>
    <edge id=":11_1" function="internal">
        <lane id=":11_1_0" index="0" allow="passenger" speed="33.33" length="15.00" width="3.50" shape="198.25,657.50 198.25,642.50"/>
    </edge>
    <edge id=":11_2" function="internal">
        <lane id=":11_2_0" index="0" allow="passenger" speed="8.01" length="14.13" width="3.50" shape="198.25,657.50 199.08,654.22 201.24,651.24 204.22,649.08 207.50,648.25"/>
    </edge>
    <edge id=":11_3" function="internal">
        <lane id=":11_3_0" index="0" allow="passenger" speed="6.62" length="9.27" width="3.50" shape="207.50,651.75 204.98,652.11 203.19,653.19 202.11,654.98 201.75,657.50"/>
    </edge>
    <edge id=":11_4" function="internal">
        <lane id=":11_4_0" index="0" allow="passenger" speed="33.33" length="15.00" width="3.50" shape="207.50,651.75 192.50,651.75"/>
    </edge>
    <edge id=":11_5" function="internal">
        <lane id=":11_5_0" index="0" allow="passenger" speed="8.01" length="14.13" width="3.50" shape="207.50,651.75 204.22,650.92 201.24,648.76 199.08,645.78 198.25,642.50"/>
    </edge>
    <edge id=":11_6" function="internal">
        <lane id=":11_6_0" index="0" allow="passenger" speed="6.62" length="9.27" width="3.50" shape="201.75,642.50 202.11,645.02 203.19,646.81 204.98,647.89 207.50,648.25"/>
    </edge>
    <edge id=":11_7" function="internal">
        <lane id=":11_7_0" index="0" allow="passenger" speed="33.33" length="15.00" width="3.50" shape="201.75,642.50 201.75,657.50"/>
    </edge>
    <edge id=":11_8" function="internal">
        <lane id=":11_8_0" index="0" allow="passenger" speed="8.01" length="14.13" width="3.50" shape="201.75,642.50 200.92,645.78 198.76,648.76 195.78,650.92 192.50,651.75"/>
    </edge>
    <edge id=":11_9" function="internal">
        <lane id=":11_9_0" index="0" allow="passenger" speed="6.62" length="9.27" width="3.50" shape="192.50,648.25 195.02,647.89 196.81,646.81 197.89,645.02 198.25,642.50"/>
    </edge>
    <edge id=":11_10" function="internal">
        <lane id=":11_10_0" index="0" allow="passenger" speed="33.33" length="15.00" width="3.50" shape="192.50,648.25 207.50,648.25"/>
    </edge>
    <edge id=":11_11" function="internal">
        <lane id=":11_11_0" index="0" allow="passenger" speed="8.01" length="14.13" width="3.50" shape="192.50,648.25 195.78,649.08 198.76,651.24 200.92,654.22 201.75,657.50"/>
    </edge>
    <edge id=":12_0" function="internal">
        <lane id=":12_0_0" index="0" allow="passenger" speed="6.62" length="9.27" width="3.50" shape="48.25,657.50 47.89,654.98 46.81,653.19 45.02,652.11 42.50,651.75"/>
    </edge>
    <edge id=":12_1" function="internal">
        <lane id=":12_1_0" index="0" allow="passenger" speed="33.33" length="15.00" width="3.50" shape="48.25,657.50 48.25,642.50"/>
    </edge>
    <edge id=":12_2" function="internal">
        <lane id=":12_2_0" index="0" allow="passenger" speed="8.01" length="14.13" width="3.50" shape="48.25,657.50 49.08,654.22 51.24,651.24 54.22,649.08 57.50,648.25"/>
    </edge>
    <edge id=":12_3" function="internal">
        <lane id=":12_3_0" index="0" allow="passenger" speed="6.62" length="9.27" width="3.50" shape="57.50,651.75 54.98,652.11 53.19,653.19 52.11,654.98 51.75,657.50"/>
    </edge>
    <edge id=":12_4" function="internal">
        <lane id=":12_4_0" index="0" allow="passenger" speed="33.33" length="15.00" width="3.50" shape="57.50,651.75 42.50,651.75"/>
    </edge>
    <edge id=":12_5" function="internal">
        <lane id=":12_5_0" index="0" allow="passenger" speed="8.01" length="14.13" width="3.50" shape="57.50,651.75 54.22,650.92 51.24,648.76 49.08,645.78 48.25,642.50"/>
    </edge>
    <edge id=":12_6" function="internal">
        <lane id=":12_6_0" index="0" allow="passenger" speed="6.62" length="9.27" width="3.50" shape="51.75,642.50 52.11,645.02 53.19,646.81 54.98,647.89 57.50,648.25"/>
    </edge>
    <edge id=":12_7" function="internal">
        <lane id=":12_7_0" index="0" allow="passenger" speed="33.33" length="15.00" width="3.50" shape="51.75,642.50 51.75,657.50"/>
    </edge>
    <edge id=":12_8" function="internal">
        <lane id=":12_8_0" index="0" allow="passenger" speed="8.01" length="14.13" width="3.50" shape="51.75,642.50 50.92,645.78 48.76,648.76 45.78,650.92 42.50,651.75"/>
    </edge>
    <edge id=":12_9" function="internal">
        <lane id=":12_9_0" index="0" allow="passenger" speed="6.62" length="9.27" width="3.50" shape="42.50,648.25 45.02,647.89 46.81,646.81 47.89,645.02 48.25,642.50"/>
    </edge>
    <edge id=":12_10" function="internal">
        <lane id=":12_10_0" index="0" allow="passenger" speed="33.33" length="15.00" width="3.50" shape="42.50,648.25 57.50,648.25"/>
    </edge>
    <edge id=":12_11" function="internal">